examples/test_perturbation_outputs/pert_min_cost/pglib_opf_case89_pegase.m
%% MATPOWER Case Format : Version 2
function mpc = pglib_opf_case89_pegase
mpc.version = '2';

%%-----  Power Flow Data  -----%%
%% system MVA base
mpc.baseMVA = 100.0;
%% bus data
%    bus_i    type    Pd    Qd    Gs    Bs    area    Vm    Va    baseKV    zone    Vmax    Vmin
mpc.bus = [
	89	1	0.0	0.0	0.19911099999999998	4.530599	0	1.0	0.0	380.0	2	1.1	0.9				
	228	1	-23.43	57.4	0.0	0.0	0	1.0	0.0	150.0	2	1.1	0.9				
	271	1	96.7	26.8	0.0	0.0	0	1.0	0.0	150.0	2	1.1	0.9				
	317	1	0.0	0.0	0.045946	-1.8220300000000003	0	1.0	0.0	380.0	2	1.1	0.9				
	659	1	0.0	0.0	0.174507	73.977052	0	1.0	0.0	380.0	2	1.1	0.9				
	792	1	295.3	41.9	0.0	0.0	0	1.0	0.0	150.0	2	1.1	0.9				
	913	3	0.0	0.0	0.0	0.0	0	1.0	0.0	380.0	2	1.1	0.9				
	955	1	244.19999999999996	152.7	0.0	0.0	0	1.0	0.0	150.0	2	1.1	0.9				
	1037	1	0.0	0.0	0.0	0.55	0	1.0	0.0	380.0	2	1.1	0.9				
	1163	1	0.0	0.0	0.0	16.04	0	1.0	0.0	380.0	2	1.1	0.9				
	1317	1	149.3	-2.0	0.0	20.77	0	1.0	0.0	380.0	2	1.1	0.9				
	1367	1	0.0	0.0	0.175687	-1.509401	0	1.0	0.0	380.0	2	1.1	0.9				
	1445	1	238.39999999999998	210.9	0.0	0.0	0	1.0	0.0	220.0	2	1.1	0.9				
	1531	1	0.0	0.0	0.0	0.0	0	1.0	0.0	150.0	2	1.1	0.9				
	1579	1	0.0	0.0	0.0	16.56	0	1.0	0.0	380.0	2	1.1	0.9				
	1611	1	274.1	166.5	0.0	0.56	0	1.0	0.0	150.0	2	1.1	0.9				
	1616	1	0.0	0.0	0.0	14.45	0	1.0	0.0	380.0	2	1.1	0.9				
	1676	1	0.0	0.0	0.171586	-1.4632	0	1.0	0.0	380.0	2	1.1	0.9				
	1815	1	63.66	9.7	0.0	0.0	0	1.0	0.0	220.0	2	1.1	0.9				
	1968	1	118.40000000000002	137.0	0.0	0.0	0	1.0	0.0	150.0	2	1.1	0.9				
	2107	2	0.0	0.0	0.0	0.0	0	1.0	0.0	380.0	2	1.1	0.9				
	2154	1	-357.45	33.05	0.29	-5.6	0	1.0	0.0	380.0	2	1.1	0.9				
	2168	1	8.6	-1.48	0.0	0.0	0	1.0	0.0	150.0	2	1.1	0.9				
	2267	2	0.0	0.0	0.0	0.0	0	1.0	0.0	380.0	2	1.1	0.9				
	2268	1	0.0	0.0	0.183167	22.675025	0	1.0	0.0	380.0	2	1.1	0.9				
	2299	1	402.09999999999997	110.2	0.0	0.0	0	1.0	0.0	150.0	2	1.1	0.9				
	2441	1	0.0	0.0	0.24253399999999997	1.143584	0	1.0	0.0	380.0	2	1.1	0.9				
	2449	1	301.9	-103.2	0.0	0.0	0	1.0	0.0	150.0	2	1.1	0.9				
	2520	1	0.0	0.0	0.057433	3.80797	0	1.0	0.0	380.0	2	1.1	0.9				
	2870	1	0.0	0.0	0.0	0.62	0	1.0	0.0	380.0	2	1.1	0.9				
	2908	1	203.8	61.0	0.0	0.6	0	1.0	0.0	150.0	2	1.1	0.9				
	3097	1	361.91	3.66	0.0	9.39	0	1.0	0.0	380.0	2	1.1	0.9				
	3242	1	296.1	82.3	0.0	0.0	0	1.0	0.0	150.0	2	1.1	0.9				
	3279	1	0.0	0.0	0.0	0.0	0	1.0	0.0	150.0	2	1.1	0.9				
	3493	1	226.29999999999998	61.1	0.0	0.0	0	1.0	0.0	150.0	2	1.1	0.9				
	3506	1	0.0	0.0	0.0	0.6	0	1.0	0.0	150.0	2	1.1	0.9				
	3659	2	0.0	0.0	0.0	0.0	0	1.0	0.0	380.0	2	1.1	0.9				
	4014	1	0.0	0.0	0.0	0.0	0	1.0	0.0	150.0	2	1.1	0.9				
	4423	1	0.0	0.0	0.0	0.33	0	1.0	0.0	150.0	2	1.1	0.9				
	4427	1	296.8	77.7	0.0	0.0	0	1.0	0.0	150.0	2	1.1	0.9				
	4495	1	336.3	104.4	0.0	0.0	0	1.0	0.0	150.0	2	1.1	0.9				
	4586	2	0.0	0.0	0.0	0.0	0	1.0	0.0	150.0	2	1.1	0.9				
	4665	1	390.5	62.5	0.0	0.0	0	1.0	0.0	150.0	2	1.1	0.9				
	4929	1	37.0	8.7	0.070441	50.913893	0	1.0	0.0	380.0	2	1.1	0.9				
	5097	2	0.0	0.0	0.0	0.0	0	1.0	0.0	150.0	2	1.1	0.9				
	5155	1	411.30000000000007	168.0	0.0	0.0	0	1.0	0.0	150.0	2	1.1	0.9				
	5210	1	347.61	74.37	0.0	0.0	0	1.0	0.0	220.0	2	1.1	0.9				
	5416	1	0.0	0.0	0.0	25.129999999999995	0	1.0	0.0	380.0	2	1.1	0.9				
	5509	1	0.0	0.0	0.314057	17.296509	0	1.0	0.0	380.0	2	1.1	0.9				
	5587	1	0.0	0.0	0.0	0.33	0	1.0	0.0	150.0	2	1.1	0.9				
	5762	1	0.0	0.0	0.0	2.23	0	1.0	0.0	380.0	2	1.1	0.9				
	5776	1	222.7	80.5	0.0	0.0	0	1.0	0.0	150.0	2	1.1	0.9				
	5848	1	0.0	0.0	0.29	-0.42	0	1.0	0.0	380.0	2	1.1	0.9				
	5996	1	0.0	0.0	0.164188	4.023827	0	1.0	0.0	380.0	2	1.1	0.9				
	6069	1	-456.66	-131.97	0.285753	35.371068	0	1.0	0.0	380.0	2	1.1	0.9				
	6233	2	0.0	0.0	0.0	0.0	0	1.0	0.0	380.0	2	1.1	0.9				
	6293	1	0.0	0.0	0.0	33.66	0	1.0	0.0	380.0	2	1.1	0.9				
	6542	1	355.98	-147.98	0.0	0.0	0	1.0	0.0	220.0	2	1.1	0.9				
	6704	1	0.0	0.0	0.211099	0.672832	0	1.0	0.0	380.0	2	1.1	0.9				
	6798	2	0.0	0.0	0.0	0.0	0	1.0	0.0	380.0	2	1.1	0.9				
	6826	1	326.9	-82.3	0.0	0.0	0	1.0	0.0	150.0	2	1.1	0.9				
	6833	1	0.0	0.0	0.246363	4.841277	0	1.0	0.0	380.0	2	1.1	0.9				
	7051	1	0.0	0.0	0.0	21.19	0	1.0	0.0	380.0	2	1.1	0.9				
	7180	1	0.0	0.0	0.234234	4.220723	0	1.0	0.0	380.0	2	1.1	0.9				
	7279	2	0.0	0.0	0.0	0.0	0	1.0	0.0	150.0	2	1.1	0.9				
	7526	1	-179.73	-63.080000000000005	0.0	0.0	0	1.0	0.0	380.0	2	1.1	0.9				
	7563	1	531.7	-12.8	0.0	0.0	0	1.0	0.0	150.0	2	1.1	0.9				
	7637	1	0.0	0.0	0.29	6.18	0	1.0	0.0	380.0	2	1.1	0.9				
	7762	1	0.0	0.0	0.304243	48.453399	0	1.0	0.0	380.0	2	1.1	0.9				
	7829	1	-114.36	30.04	0.0	0.0	0	1.0	0.0	220.0	2	1.1	0.9				
	7960	2	0.0	0.0	0.0	0.0	0	1.0	0.0	380.0	2	1.1	0.9				
	8103	1	39.34	-10.7	0.0	0.0	0	1.0	0.0	150.0	2	1.1	0.9				
	8179	1	0.0	0.0	0.194464	19.1468	0	1.0	0.0	380.0	2	1.1	0.9				
	8181	1	0.0	0.0	0.21082399999999998	6.620599	0	1.0	0.0	380.0	2	1.1	0.9				
	8229	1	0.0	0.0	0.0	0.0	0	1.0	0.0	150.0	2	1.1	0.9				
	8329	1	0.0	0.0	0.149712	2.04987	0	1.0	0.0	380.0	2	1.1	0.9				
	8335	1	637.92	139.57	0.0	0.0	0	1.0	0.0	150.0	2	1.1	0.9				
	8420	1	0.0	0.0	0.0	0.0	0	1.0	0.0	150.0	2	1.1	0.9				
	8574	1	0.0	0.0	0.447839	20.994738	0	1.0	0.0	380.0	2	1.1	0.9				
	8581	1	-1299.13	-140.85	0.0	0.0	0	1.0	0.0	380.0	2	1.1	0.9				
	8605	2	0.0	0.0	0.0	0.0	0	1.0	0.0	380.0	2	1.1	0.9				
	8847	1	0.0	0.0	0.18076	-0.8812510000000001	0	1.0	0.0	380.0	2	1.1	0.9				
	8921	1	0.0	0.0	0.0	16.37	0	1.0	0.0	380.0	2	1.1	0.9				
	8964	1	925.91	147.97	0.0	0.0	0	1.0	0.0	150.0	2	1.1	0.9				
	9024	1	0.0	0.0	0.141019	25.245999999999995	0	1.0	0.0	380.0	2	1.1	0.9				
	9025	1	0.0	0.0	0.205903	3.0768	0	1.0	0.0	380.0	2	1.1	0.9				
	9064	1	0.0	0.0	0.0	15.259999999999998	0	1.0	0.0	380.0	2	1.1	0.9				
	9192	1	17.92	23.3	0.0	0.0	0	1.0	0.0	150.0	2	1.1	0.9				
	9239	2	0.0	0.0	0.0	0.0	0	1.0	0.0	380.0	2	1.1	0.9				
];

%% generator data
%    bus    Pg    Qg    Qmax    Qmin    Vg    mBase    status    Pmax    Pmin    Pc1    Pc2    Qc1min    Qc1max    Qc2min    Qc2max    ramp_agc    ramp_10    ramp_30    ramp_q    apf
mpc.gen = [
	913	1133.335	251.085	772.11	-269.94	1.0	100.0	1	1700.0	566.67															
	2107	1000.0	202.14	661.9	-257.62	1.0	100.0	1	1500.0	500.0															
	2267	333.335	74.665	228.16	-78.83	1.0	100.0	1	500.0	166.67															
	3659	1333.335	330.815	943.6399999999999	-282.01	1.0	100.0	1	2000.0	666.67															
	4586	-313.8	31.574999999999996	92.96	-29.81	1.0	100.0	1	100.0	-727.6															
	5097	14.154999999999998	2.4	8.91	-4.11	1.0	100.0	1	21.23	7.08															
	6233	800.0	177.855	545.68	-189.97	1.0	100.0	1	1200.0	400.0															
	6798	666.665	123.065	429.61	-183.48	1.0	100.0	1	1000.0	333.33															
	7279	-404.465	4.07	14.78	-6.64	1.0	100.0	1	100.0	-908.93															
	7960	400.0	90.49	274.2	-93.22	1.0	100.0	1	600.0	200.0															
	8605	400.0	90.145	273.94	-93.65	1.0	100.0	1	600.0	200.0															
	9239	400.0	90.49	274.2	-93.22	1.0	100.0	1	600.0	200.0															
];

%% branch data
%    f_bus    t_bus    r    x    b    rateA    rateB    rateC    ratio    angle    status    angmin    angmax
mpc.branch = [
	3097	659	0.0007301436249237254	0.009048615882566523	-0.003975274742791219	1205.0	3479.9999999999995	3479.9999999999995	0	0	1	-29.999999999999996	29.999999999999996								
	9024	4929	0.001920903069808733	0.022930897064063323	-0.003978022182206492	909.0	1371.0	1371.0	0	0	1	-29.999999999999996	29.999999999999996								
	1815	6542	0.014149048632083584	0.058713988536080966	-0.6746451402660905	521.0	521.0	521.0	0	0	1	-29.999999999999996	29.999999999999996								
	6542	1445	0.02637598760516465	0.07162831038465708	-0.41800771478545257	415.00000000000006	415.00000000000006	415.00000000000006	0	0	1	-29.999999999999996	29.999999999999996								
	6069	6833	0.0005405304034706768	0.004654513874352437	-0.003979954228484338	1600.0	6748.0	6748.0	0	0	1	-29.999999999999996	29.999999999999996								
	6069	2268	0.0012584821961931125	0.011221127730256247	-0.003976089121403812	1632.9999999999998	2793.0	2793.0	0	0	1	-29.999999999999996	29.999999999999996								
	6069	7180	0.0004803175260794362	0.005273441660816165	-0.00530283976105327	1567.0	5970.0	5970.0	0	0	1	-29.999999999999996	29.999999999999996								
	6069	6293	0.0008200049509426208	0.009377265038882606	-0.003976862588393108	1600.0	3354.9999999999995	3354.9999999999995	0	0	1	-29.999999999999996	29.999999999999996								
	1968	9192	0.0002774102224087347	0.0034694808190015624	-0.5210866038635933	8992.0	8992.0	8992.0	0	0	1	-29.999999999999996	29.999999999999996								
	1968	3493	0.005390324282642585	0.13628935982406618	-0.003974471925095282	8.0	8.0	8.0	0	0	1	-29.999999999999996	29.999999999999996								
	1968	955	0.0196025065343797	0.09004553389242541	-0.3279207570714221	337.0	337.0	337.0	0	0	1	-29.999999999999996	29.999999999999996								
	1968	228	0.005390325097650252	0.1362893597594971	-0.003974481108992367	7.000000000000001	7.000000000000001	7.000000000000001	0	0	1	-29.999999999999996	29.999999999999996								
	1968	6826	0.030709273195449357	0.09381922083599872	-0.003974491883159224	339.0	339.0	339.0	0	0	1	-29.999999999999996	29.999999999999996								
	1968	8964	0.002633279135804296	0.011903469632465448	-0.0345815855773938	319.0	2595.0	2595.0	0	0	1	-29.999999999999996	29.999999999999996								
	1968	5776	0.005390320845518701	0.13628936009637257	-0.003974471925095282	16.0	16.0	16.0	0	0	1	-29.999999999999996	29.999999999999996								
	9192	955	0.009067044122587214	0.13589760005283297	-0.2816342524054686	56.00000000000001	56.00000000000001	56.00000000000001	0	0	1	-29.999999999999996	29.999999999999996								
	9192	6826	0.009378273981884849	0.13585515476574797	-0.003974490553316302	53.0	53.0	53.0	0	0	1	-29.999999999999996	29.999999999999996								
	9192	8964	0.01899143229430883	0.06746294892935882	-0.07647600397962051	446.0	446.0	446.0	0	0	1	-29.999999999999996	29.999999999999996								
	8574	1616	0.0003893276265177033	0.0038535638607855227	-0.003974999221755015	1435.0	8142.0	8142.0	0	0	1	-29.999999999999996	29.999999999999996								
	8574	1163	0.0009587851381312369	0.011364694819109759	-0.003975156875186931	1468.0	2766.0	2766.0	0	0	1	-29.999999999999996	29.999999999999996								
	8574	9064	0.0003727288399016782	0.0032740691149142276	-0.003975065138492298	1435.0	9657.0	9657.0	0	0	1	-29.999999999999996	29.999999999999996								
	8574	8921	0.0002899806717587612	0.0033892881561608033	-0.003974823050026167	1600.0	9284.0	9284.0	0	0	1	-29.999999999999996	29.999999999999996								
	3493	2299	0.006940475460793009	0.1361487440255562	-0.20062138613882377	199.0	199.0	199.0	0	0	1	-29.999999999999996	29.999999999999996								
	2299	4423	1.4279654947036967e-8	0.00022199988291273136	-0.08816942424286804	142286.0	142286.0	142286.0	0	0	1	-29.999999999999996	29.999999999999996								
	6826	2299	0.005390331030198238	0.13628935928949004	-0.003974471925095282	5.0	5.0	5.0	0	0	1	-29.999999999999996	29.999999999999996								
	7563	2299	0.0053903316061620545	0.13628935924385918	-0.21367474708657688	28.999999999999996	28.999999999999996	28.999999999999996	0	0	1	-29.999999999999996	29.999999999999996								
	4427	2299	0.027661079538936168	0.1306459964061229	-0.07572240610642184	162.0	162.0	162.0	0	0	1	-29.999999999999996	29.999999999999996								
	8335	2299	0.005390325800040056	0.13628935970385017	-0.003974471925095282	7.000000000000001	7.000000000000001	7.000000000000001	0	0	1	-29.999999999999996	29.999999999999996								
	5155	2299	0.005390326774726616	0.1362893596266305	-0.003979608344999686	30.0	30.0	30.0	0	0	1	-29.999999999999996	29.999999999999996								
	271	2299	0.022070509998497852	0.08417296435850342	-0.047149771060341315	354.0	354.0	354.0	0	0	1	-29.999999999999996	29.999999999999996								
	2449	2299	0.005390325621925776	0.1362893597179613	-0.006759420165036199	7.000000000000001	7.000000000000001	7.000000000000001	0	0	1	-29.999999999999996	29.999999999999996								
	4665	2299	0.006202207515703554	0.02902499794672404	-0.003978859368706743	1068.0	1068.0	1068.0	0	0	1	-29.999999999999996	29.999999999999996								
	4495	2299	0.007514367625959206	0.13608762853935788	-0.003975188314226665	121.0	121.0	121.0	0	0	1	-29.999999999999996	29.999999999999996								
	3493	5587	1.4279760452045952e-8	0.00022200070303098396	-0.19361169278466514	319.0	142286.0	142286.0	0	0	1	-29.999999999999996	29.999999999999996								
	4586	3493	0.005390327276011143	0.13628935958691618	-0.05824755164717048	94.0	94.0	94.0	0	0	1	-29.999999999999996	29.999999999999996								
	228	3493	0.025813191400227857	0.09979477066098952	-0.9120021939353883	305.0	305.0	305.0	0	0	1	-29.999999999999996	29.999999999999996								
	6826	3493	0.005390341588680874	0.13628935845299128	-0.003974490395800591	37.0	37.0	37.0	0	0	1	-29.999999999999996	29.999999999999996								
	7563	3493	0.005390326906123919	0.13628935961622055	-0.034149555852008996	17.0	17.0	17.0	0	0	1	-29.999999999999996	29.999999999999996								
	4427	3493	0.03856677665469016	0.1245614900337077	-0.24621047956058237	192.0	192.0	192.0	0	0	1	-29.999999999999996	29.999999999999996								
	8335	3493	0.005390328479445655	0.13628935949157386	-0.0039745372858212905	6.0	6.0	6.0	0	0	1	-29.999999999999996	29.999999999999996								
	5155	3493	0.019783430416493313	0.0804966037829742	-0.003993053014708699	373.0	373.0	373.0	0	0	1	-29.999999999999996	29.999999999999996								
	271	3493	0.005390326918281768	0.13628935961525732	-0.07206872761567808	18.0	18.0	18.0	0	0	1	-29.999999999999996	29.999999999999996								
	5776	3493	0.005390327966939058	0.1362893595321773	-0.11994661326831899	11.0	11.0	11.0	0	0	1	-29.999999999999996	29.999999999999996								
	2449	3493	0.005390346477614682	0.13628935806566356	-0.003974471925095282	6.0	6.0	6.0	0	0	1	-29.999999999999996	29.999999999999996								
	4665	3493	0.006549610112291567	0.13618756272418694	-0.00398394283467538	37.0	37.0	37.0	0	0	1	-29.999999999999996	29.999999999999996								
	4495	3493	0.007099259369050378	0.029810785627481424	-0.003975394500236571	1038.0	1038.0	1038.0	0	0	1	-29.999999999999996	29.999999999999996								
	5587	4586	0.0030508969204931344	0.020229928822354415	-0.049252732776316734	1545.0	1545.0	1545.0	0	0	1	-29.999999999999996	29.999999999999996								
	4423	4586	0.002903705618699452	0.020212203674887602	-0.029952598944352773	1544.0	1544.0	1544.0	0	0	1	-29.999999999999996	29.999999999999996								
	4929	2870	4.000928321127367e-5	0.00041009515291510514	-0.0039758124643510424	777.0	76679.0	76679.0	0	0	1	-29.999999999999996	29.999999999999996								
	4929	659	0.0008702768931314475	0.01087280620092248	-0.003975764704085277	1303.0	2897.0	2897.0	0	0	1	-29.999999999999996	29.999999999999996								
	4929	1037	4.002120539838566e-5	0.000460243862080451	-0.003975429676090237	777.0	68410.0	68410.0	0	0	1	-29.999999999999996	29.999999999999996								
	4929	659	0.0009524181122216914	0.009263018593880876	-0.003975429268999798	1501.0	3401.0	3401.0	0	0	1	-29.999999999999996	29.999999999999996								
	1815	5210	0.005390327631794582	0.13628935955872917	-0.006945027481282846	12.0	12.0	12.0	0	0	1	-29.999999999999996	29.999999999999996								
	1815	1445	0.03191645247712986	0.12739546033817473	-0.5512076053796949	239.0	239.0	239.0	0	0	1	-29.999999999999996	29.999999999999996								
	1616	7762	0.0004400018057355214	0.003200134471387619	-0.003975717755571189	1664.9999999999998	9780.0	9780.0	0	0	1	-29.999999999999996	29.999999999999996								
	1616	2520	0.0004602706734071423	0.004892577389582069	-0.003974946789314793	1730.9999999999998	6431.999999999999	6431.999999999999	0	0	1	-29.999999999999996	29.999999999999996								
	9064	7762	0.00029983355538582744	0.0035183655027354118	-0.0039751081227581515	1600.0	8942.0	8942.0	0	0	1	-29.999999999999996	29.999999999999996								
	9064	89	0.0005098838132643063	0.0045387715513442945	-0.003975395048197454	1664.9999999999998	6915.000000000001	6915.000000000001	0	0	1	-29.999999999999996	29.999999999999996								
	1317	659	0.0006813608491340895	0.007479834744033471	-0.003974852595539478	1632.9999999999998	4217.0	4217.0	0	0	1	-29.999999999999996	29.999999999999996								
	1317	8605	0.0009289260826842399	0.010222691105628033	-0.0039746261661879265	1764.0	3079.0	3079.0	0	0	1	-29.999999999999996	29.999999999999996								
	8605	1367	3.999617488600871e-5	0.0003999619269501128	-0.003974583442385137	1501.0	78577.0	78577.0	0	0	1	-29.999999999999996	29.999999999999996								
	8605	8921	0.0007842903755698984	0.0069965765274131305	-0.003974641867237973	1764.0	4498.0	4498.0	0	0	1	-29.999999999999996	29.999999999999996								
	1163	1676	4.001206926294169e-5	0.0004301297142713675	-0.003975728131032663	1600.0	73144.0	73144.0	0	0	1	-29.999999999999996	29.999999999999996								
	1163	7051	0.00025006028811760283	0.0030905882187021835	-0.003976875962293576	1698.0	10190.0	10190.0	0	0	1	-29.999999999999996	29.999999999999996								
	913	7762	0.00047035456119592933	0.0053839387935267855	-0.003975042416556787	1632.9999999999998	5849.0	5849.0	0	0	1	-29.999999999999996	29.999999999999996								
	2107	7762	0.0004599743480452586	0.005481781339398897	-0.003975457261728802	1764.0	5744.0	5744.0	0	0	1	-29.999999999999996	29.999999999999996								
	2107	5996	0.0001599856761999171	0.0017298501236352006	-0.003975345581350143	1863.0	18181.0	18181.0	0	0	1	-29.999999999999996	29.999999999999996								
	2107	6293	0.001657639297419736	0.014663654933095644	-0.003975402691873862	1764.0	2134.0	2134.0	0	0	1	-29.999999999999996	29.999999999999996								
	913	7762	0.000511882600827092	0.005138803918877659	-0.003975151464500211	1797.0	6140.0	6140.0	0	0	1	-29.999999999999996	29.999999999999996								
	6704	8921	0.00021020106153132843	0.002482322945985728	-0.003974743167425616	1534.0	12692.0	12692.0	0	0	1	-29.999999999999996	29.999999999999996								
	228	4586	0.0043809713911841025	0.021655029855231597	-0.6349725480208248	306.0	1428.0	1428.0	0	0	1	-29.999999999999996	29.999999999999996								
	2441	6293	0.0002401686536912889	0.0028920255085767	-0.003976553778410843	1664.9999999999998	10893.0	10893.0	0	0	1	-29.999999999999996	29.999999999999996								
	955	3506	1.4279648270981993e-8	0.00022199983101748206	-0.003979207659838296	358.0	142286.0	142286.0	0	0	1	-29.999999999999996	29.999999999999996								
	955	8964	0.017673107417211197	0.09941016062366814	-0.0039891445125737985	310.0	310.0	310.0	0	0	1	-29.999999999999996	29.999999999999996								
	3506	2908	0.006378828770463218	0.039479372184949825	-0.003976918529143959	780.0	780.0	780.0	0	0	1	-29.999999999999996	29.999999999999996								
	228	6826	0.005390355897697826	0.13628935731935274	-0.003974492687557703	32.0	32.0	32.0	0	0	1	-29.999999999999996	29.999999999999996								
	228	5776	0.005390328579626461	0.13628935948363705	-0.06572338037297183	10.0	10.0	10.0	0	0	1	-29.999999999999996	29.999999999999996								
	8964	6826	0.025796020907066244	0.13143989649328244	-0.0039744908180126435	63.0	63.0	63.0	0	0	1	-29.999999999999996	29.999999999999996								
	5776	6826	0.0028189647055001	0.011470427576655397	-0.003974493304895919	2682.0	2682.0	2682.0	0	0	1	-29.999999999999996	29.999999999999996								
	659	8329	0.00034014788814063423	0.0030513077297396316	-0.003975340685174839	1600.0	10293.0	10293.0	0	0	1	-29.999999999999996	29.999999999999996								
	659	7051	0.0012396621922221211	0.01250816681843917	-0.003975346517444643	1863.0	2505.0	2505.0	0	0	1	-29.999999999999996	29.999999999999996								
	659	9239	5.999716634016494e-5	0.0006499692376035993	-0.0039752604844618435	1435.0	48391.0	48391.0	0	0	1	-29.999999999999996	29.999999999999996								
	659	7960	6.0028709607475246e-5	0.0006303013955960005	-0.003975218800795071	1534.0	49913.0	49913.0	0	0	1	-29.999999999999996	29.999999999999996								
	659	6233	6.000360384520241e-5	0.0005500331349272499	-0.003975624744023364	1764.0	57092.99999999999	57092.99999999999	0	0	1	-29.999999999999996	29.999999999999996								
	659	5416	0.0007909543445961663	0.009681812949190316	-0.0039766857315107615	1369.0	3253.0	3253.0	0	0	1	-29.999999999999996	29.999999999999996								
	659	6798	7.00021265305733e-5	0.0007900238912810596	-0.003975449180985645	39828.0	39828.0	39828.0	0	0	1	-29.999999999999996	29.999999999999996								
	792	3279	1.4279884907825796e-8	0.00022200167045753995	-0.003974662824270663	397.0	142286.0	142286.0	0	0	1	-29.999999999999996	29.999999999999996								
	7563	792	0.0053903248470690045	0.13628935977934942	-0.003974535969843245	5.0	5.0	5.0	0	0	1	-29.999999999999996	29.999999999999996								
	7279	792	0.012849735662559954	0.13528202074761467	-0.003974815981882031	63.0	63.0	63.0	0	0	1	-29.999999999999996	29.999999999999996								
	8335	792	0.015114525148607687	0.11850714794706896	-0.003974601350814749	254.0	254.0	254.0	0	0	1	-29.999999999999996	29.999999999999996								
	2449	792	0.008108098906264391	0.13601922697170513	-0.34255054801294504	86.0	86.0	86.0	0	0	1	-29.999999999999996	29.999999999999996								
	4665	792	0.005390355160292074	0.13628935737777415	-0.003974825776757684	14.000000000000002	14.000000000000002	14.000000000000002	0	0	1	-29.999999999999996	29.999999999999996								
	4495	792	0.005390326457070378	0.13628935965179687	-0.0039747373540294255	13.0	13.0	13.0	0	0	1	-29.999999999999996	29.999999999999996								
	5416	2267	0.00024012401872108187	0.002131090490635653	-0.003975309246397373	777.0	14737.0	14737.0	0	0	1	-29.999999999999996	29.999999999999996								
	5416	7637	0.0009345546664479233	0.008848003099641689	-0.003975617866300386	1303.0	3554.0	3554.0	0	0	1	-29.999999999999996	29.999999999999996								
	8964	2168	1.427974020041293e-8	0.00022200054561109792	-0.036830115827419296	332.0	142286.0	142286.0	0	0	1	-29.999999999999996	29.999999999999996								
	3659	5996	0.0001798110915468016	0.002037864408082258	-0.003976369390431696	1797.0	15425.0	15425.0	0	0	1	-29.999999999999996	29.999999999999996								
	5762	5996	0.0001799339585166003	0.002079236853792664	-0.00397613429145885	777.0	15130.000000000002	15130.000000000002	0	0	1	-29.999999999999996	29.999999999999996								
	3242	5097	1.4279756220746348e-8	0.00022200067014146066	-0.7510414641938487	142286.0	142286.0	142286.0	0	0	1	-29.999999999999996	29.999999999999996								
	7563	3242	0.020357102908309457	0.09191960333591845	-0.5409726481715483	331.0	331.0	331.0	0	0	1	-29.999999999999996	29.999999999999996								
	4427	3242	0.005390326159785182	0.13628935967534933	-0.003974790806655948	5.0	5.0	5.0	0	0	1	-29.999999999999996	29.999999999999996								
	3242	7279	0.008873995498570453	0.07316546779230437	-0.4166430009154733	430.99999999999994	430.99999999999994	430.99999999999994	0	0	1	-29.999999999999996	29.999999999999996								
	271	3242	0.005390324927023862	0.13628935977301498	-0.024132480917698953	4.0	4.0	4.0	0	0	1	-29.999999999999996	29.999999999999996								
	3242	1611	0.00539034462955174	0.13628935821207713	-0.2948136299850978	56.00000000000001	56.00000000000001	56.00000000000001	0	0	1	-29.999999999999996	29.999999999999996								
	5097	1611	0.004201074199427956	0.026246589368069274	-0.33293242076983404	1189.0	1189.0	1189.0	0	0	1	-29.999999999999996	29.999999999999996								
	8181	8179	0.00031010539912940024	0.0031710795194781595	-0.0039750353809397485	1271.0	9918.0	9918.0	0	0	1	-29.999999999999996	29.999999999999996								
	8181	7762	0.00042991486292020116	0.004978808126625745	-0.003975253307901184	1501.0	6320.0	6320.0	0	0	1	-29.999999999999996	29.999999999999996								
	9025	7762	0.00041986064379974467	0.005078080064001988	-0.003975988309832682	1730.9999999999998	6197.0	6197.0	0	0	1	-29.999999999999996	29.999999999999996								
	7563	4427	0.005390328576292881	0.13628935948390114	-0.29364668101756997	41.0	41.0	41.0	0	0	1	-29.999999999999996	29.999999999999996								
	7563	7279	0.009120204416539558	0.03760626206001851	-0.18712835437137113	817.0	817.0	817.0	0	0	1	-29.999999999999996	29.999999999999996								
	7563	8335	0.005390396776136558	0.13628935408072276	-0.003974666081444482	53.0	53.0	53.0	0	0	1	-29.999999999999996	29.999999999999996								
	7563	5155	0.005390325316276802	0.13628935974217637	-0.003992877206951306	28.000000000000004	28.000000000000004	28.000000000000004	0	0	1	-29.999999999999996	29.999999999999996								
	7563	271	0.005390324583587931	0.13628935980022375	-0.1377144898487988	35.0	35.0	35.0	0	0	1	-29.999999999999996	29.999999999999996								
	2449	7563	0.00539032959455219	0.13628935940322937	-0.10624506456501351	7.000000000000001	7.000000000000001	7.000000000000001	0	0	1	-29.999999999999996	29.999999999999996								
	4665	7563	0.01155743395801399	0.06306293509387556	-0.09662016841793936	492.0	492.0	492.0	0	0	1	-29.999999999999996	29.999999999999996								
	4495	7563	0.005390336414815136	0.13628935886289245	-0.003975216503434349	17.0	17.0	17.0	0	0	1	-29.999999999999996	29.999999999999996								
	7563	1611	0.021715663513257245	0.0991864755787816	-0.2344327172396349	307.0	307.0	307.0	0	0	1	-29.999999999999996	29.999999999999996								
	4427	7279	0.005390328466884073	0.13628935949256907	-0.012022497741038463	12.0	12.0	12.0	0	0	1	-29.999999999999996	29.999999999999996								
	4427	8335	0.005390326185543527	0.13628935967330863	-0.0039746107746298455	5.0	5.0	5.0	0	0	1	-29.999999999999996	29.999999999999996								
	4427	5155	0.006288490026505474	0.04748699472177392	-0.003977986598280137	652.0	652.0	652.0	0	0	1	-29.999999999999996	29.999999999999996								
	4427	271	0.006585171682950188	0.042901066813573085	-0.0888399200479755	723.0	723.0	723.0	0	0	1	-29.999999999999996	29.999999999999996								
	2449	4427	0.005390324733566903	0.13628935978834164	-0.08040018481664331	5.0	5.0	5.0	0	0	1	-29.999999999999996	29.999999999999996								
	4665	4427	0.005390344226896864	0.13628935824397762	-0.003975811724820427	26.0	26.0	26.0	0	0	1	-29.999999999999996	29.999999999999996								
	4495	4427	0.008983060021979981	0.04225763015562713	-0.003975080961265245	714.0	714.0	714.0	0	0	1	-29.999999999999996	29.999999999999996								
	4427	1611	0.0053903256099173905	0.13628935971891268	-0.03256681304611994	6.0	6.0	6.0	0	0	1	-29.999999999999996	29.999999999999996								
	5210	1445	0.002662550303754653	0.017121365802313118	-0.122201024057759	1817.0000000000002	1817.0000000000002	1817.0000000000002	0	0	1	-29.999999999999996	29.999999999999996								
	8179	5509	0.0007294214198326327	0.006840906697808519	-0.003974852879732595	1271.0	4526.0	4526.0	0	0	1	-29.999999999999996	29.999999999999996								
	8179	7762	0.0006795685269832759	0.007994287782393021	-0.003975187616701897	1567.0	3935.0	3935.0	0	0	1	-29.999999999999996	29.999999999999996								
	7279	4014	1.4281137853010407e-8	0.00022201140967600822	-0.0040436564736148475	142286.0	142286.0	142286.0	0	0	1	-29.999999999999996	29.999999999999996								
	8335	7279	0.0052622605116043235	0.03080574680248737	-0.003974672610095028	1017.0	1017.0	1017.0	0	0	1	-29.999999999999996	29.999999999999996								
	5155	7279	0.005390325847577185	0.13628935970008405	-0.003990599317086652	9.0	9.0	9.0	0	0	1	-29.999999999999996	29.999999999999996								
	271	7279	0.005390325385777519	0.1362893597366702	-0.003979523561731433	13.0	13.0	13.0	0	0	1	-29.999999999999996	29.999999999999996								
	2449	7279	0.0066780547512763485	0.13617505704356359	-0.7288429552123313	43.0	43.0	43.0	0	0	1	-29.999999999999996	29.999999999999996								
	4665	7279	0.00539033766923847	0.1362893587635104	-0.003975377451399731	14.000000000000002	14.000000000000002	14.000000000000002	0	0	1	-29.999999999999996	29.999999999999996								
	4495	7279	0.005390330916836888	0.1362893592984711	-0.003974497792511284	7.000000000000001	7.000000000000001	7.000000000000001	0	0	1	-29.999999999999996	29.999999999999996								
	1611	7279	0.016066375235971375	0.13458458559672257	-0.053090621827146675	195.0	195.0	195.0	0	0	1	-29.999999999999996	29.999999999999996								
	5509	1579	0.0008776122341616927	0.008925619525076518	-0.0039747642497704625	1830.0	3513.0000000000005	3513.0000000000005	0	0	1	-29.999999999999996	29.999999999999996								
	8335	1531	1.4279734933536529e-8	0.00022200050467060758	-0.0039745613563840765	319.0	142286.0	142286.0	0	0	1	-29.999999999999996	29.999999999999996								
	5155	8335	0.005390325252233699	0.1362893597472502	-0.0039745920898044355	4.0	4.0	4.0	0	0	1	-29.999999999999996	29.999999999999996								
	2449	8335	0.016141130614513177	0.13456643419341197	-0.003975085660756197	204.99999999999997	204.99999999999997	204.99999999999997	0	0	1	-29.999999999999996	29.999999999999996								
	4665	8335	0.0061088940647649505	0.1362286094261531	-0.003974662579046631	47.0	47.0	47.0	0	0	1	-29.999999999999996	29.999999999999996								
	4495	8335	0.005390332245291094	0.13628935919322405	-0.00397462324852447	35.0	35.0	35.0	0	0	1	-29.999999999999996	29.999999999999996								
	7762	2268	0.0006727619402603972	0.007798334110576451	-0.00397555544068573	1632.9999999999998	4051.0	4051.0	0	0	1	-29.999999999999996	29.999999999999996								
	5155	271	0.0046038383328492255	0.062244976197660784	-0.0039770356829842484	509.0	509.0	509.0	0	0	1	-29.999999999999996	29.999999999999996								
	5155	2908	0.01341983795730248	0.05907286959638838	-0.0039756828070002265	520.0	520.0	520.0	0	0	1	-29.999999999999996	29.999999999999996								
	4665	5155	0.005390325091232884	0.1362893597600055	-0.003976453596444921	12.0	12.0	12.0	0	0	1	-29.999999999999996	29.999999999999996								
	4495	5155	0.005390326246461798	0.13628935966848235	-0.003975026065995457	15.0	15.0	15.0	0	0	1	-29.999999999999996	29.999999999999996								
	5155	1611	0.008194272054288328	0.07317039864342365	-0.004106498010742927	432.0	432.0	432.0	0	0	1	-29.999999999999996	29.999999999999996								
	271	2908	0.01624410700774223	0.05452982253202448	-0.003976669467164596	547.0	547.0	547.0	0	0	1	-29.999999999999996	29.999999999999996								
	4665	271	0.005390324844487826	0.13628935977955392	-0.003974939614944306	7.000000000000001	7.000000000000001	7.000000000000001	0	0	1	-29.999999999999996	29.999999999999996								
	4495	271	0.005390327040611363	0.13628935960556574	-0.003974831885024406	9.0	9.0	9.0	0	0	1	-29.999999999999996	29.999999999999996								
	271	1611	0.0077168748756441564	0.07194394895512038	-0.07421270014894235	424.0	424.0	424.0	0	0	1	-29.999999999999996	29.999999999999996								
	1579	5848	0.0003993848471691848	0.0036144309665223314	-0.003974734912930237	1632.9999999999998	8673.0	8673.0	0	0	1	-29.999999999999996	29.999999999999996								
	7051	8847	0.00015000441012562202	0.0017700359548505334	-0.003975836809080027	1600.0	17783.0	17783.0	0	0	1	-29.999999999999996	29.999999999999996								
	5776	8229	1.427993341584999e-8	0.0002220020475218254	-1.5499790374998976	142286.0	142286.0	142286.0	0	0	1	-29.999999999999996	29.999999999999996								
	317	6233	1.9998770809466362e-5	0.00021998647374943376	-0.003975526781161683	1698.0	142990.0	142990.0	0	0	1	-29.999999999999996	29.999999999999996								
	4665	2449	0.016931885182247575	0.13436895679514693	-1.0737766041919172	181.0	181.0	181.0	0	0	1	-29.999999999999996	29.999999999999996								
	2449	4495	0.016612961904922067	0.13031298978320477	-0.6915890564711492	224.00000000000003	224.00000000000003	224.00000000000003	0	0	1	-29.999999999999996	29.999999999999996								
	4665	4495	0.007570517730333769	0.031922134564400136	-0.003974927117217896	969.9999999999999	969.9999999999999	969.9999999999999	0	0	1	-29.999999999999996	29.999999999999996								
	1611	8420	1.4279608165472878e-8	0.00022199951926487837	-0.17179397534297403	566.0	142286.0	142286.0	0	0	1	-29.999999999999996	29.999999999999996								
	9024	6542	0.005390328232294813	0.13628934783247174	-0.31601150209847956	470.0	470.0	470.0	0.994359	0.0	1	-29.999999999999996	29.999999999999996								
	9024	6542	0.0014812352235307209	0.07148451377562041	-0.2839782495099469	495.0	495.0	495.0	0.998418	0.0	1	-29.999999999999996	29.999999999999996								
	6069	9192	0.0005616121883133506	0.04187743099857026	-0.07280636343865181	675.0	675.0	675.0	0.933053	0.0	1	-29.999999999999996	29.999999999999996								
	6069	1968	0.0006303771833399288	0.04107798446775252	-0.3512002479110433	699.0	699.0	699.0	0.91223	0.0	1	-29.999999999999996	29.999999999999996								
	7829	1968	0.005390320754557758	0.13628936010357895	-0.003974471925095282	7.000000000000001	7.000000000000001	7.000000000000001	1.0	0.0	1	-29.999999999999996	29.999999999999996								
	8574	2299	0.0006880943028137544	0.037991064979402245	-0.003975448727899547	790.0	790.0	790.0	0.919523	0.0	1	-29.999999999999996	29.999999999999996								
	8574	5587	0.0005723327678522528	0.03884642028474416	-0.003975664308421248	698.0	698.0	698.0	0.948262	0.0	1	-29.999999999999996	29.999999999999996								
	4929	1815	0.001071128747110929	0.06079206189473806	-0.1437044450647938	514.0	514.0	514.0	0.996867	0.0	1	-29.999999999999996	29.999999999999996								
	1815	792	0.005390325659867455	0.13628935971495537	-0.005090386152210626	4.0	4.0	4.0	1.0	0.0	1	-29.999999999999996	29.999999999999996								
	6704	4586	0.0008435204284679668	0.04333559013631467	-0.003974961558302845	645.0	645.0	645.0	0.923407	0.0	1	-29.999999999999996	29.999999999999996								
	2441	3506	0.0007775782809304157	0.051798421199741554	-0.003977538390253193	661.0	661.0	661.0	0.952413	0.0	1	-29.999999999999996	29.999999999999996								
	1367	6826	0.0009410612498909369	0.05698281027581993	-0.00397448488511951	615.0	615.0	615.0	0.924009	0.0	1	-29.999999999999996	29.999999999999996								
	1676	228	0.001096445701642168	0.0508219360159614	-0.39573432871371694	603.0	603.0	603.0	0.934986	0.0	1	-29.999999999999996	29.999999999999996								
	7829	6826	0.0006271369635742493	0.04651958863016226	-0.003974471925095282	492.0	492.0	492.0	1.0	0.0	1	-29.999999999999996	29.999999999999996								
	659	3279	0.0029212299334834173	0.08550152100703463	-0.003974801091425776	650.0	650.0	650.0	0.987002	0.0	1	-29.999999999999996	29.999999999999996								
	5210	792	0.008109353443810823	0.08524891656286794	-0.003974933305241637	351.0	351.0	351.0	1.0	0.0	1	-29.999999999999996	29.999999999999996								
	1445	792	0.002306500929256895	0.05069499341305909	-0.003974935586492893	653.0	653.0	653.0	1.0	0.0	1	-29.999999999999996	29.999999999999996								
	7180	2168	0.0006645448641274288	0.04777120231611355	-0.0039758463960286455	678.0	733.0	733.0	0.924038	0.0	1	-29.999999999999996	29.999999999999996								
	6833	8964	0.0005510137561470484	0.03946572561803061	-0.003977904025066438	711.0	730.0	730.0	0.901005	0.0	1	-29.999999999999996	29.999999999999996								
	3659	3242	0.0006039944561938932	0.04184070132742115	-0.2099387370154174	645.0	645.0	645.0	0.923407	0.0	1	-29.999999999999996	29.999999999999996								
	8181	4427	0.0008570461334698214	0.05438007761010234	-0.003975587542582462	643.0	643.0	643.0	0.924009	0.0	1	-29.999999999999996	29.999999999999996								
	9025	7563	0.0006924199070779648	0.04887702492050521	-0.031229078436141356	618.0	618.0	618.0	0.934986	0.0	1	-29.999999999999996	29.999999999999996								
	2267	5210	0.00034873101009284937	0.03320838462110041	-0.003976018764366201	744.0	806.0	806.0	0.967059	0.0	1	-29.999999999999996	29.999999999999996								
	5210	7279	0.005390330773845281	0.13628935930979963	-0.17715657560951395	26.0	26.0	26.0	1.0	0.0	1	-29.999999999999996	29.999999999999996								
	5210	8335	0.007422270781375467	0.13609776701532808	-0.003974659847490934	120.0	120.0	120.0	1.0	0.0	1	-29.999999999999996	29.999999999999996								
	5210	2449	0.00539033170417628	0.13628935923609398	-0.6884165828234965	43.0	43.0	43.0	1.0	0.0	1	-29.999999999999996	29.999999999999996								
	5210	4665	0.0053903268165375684	0.13628935962331803	-0.003976825467688545	9.0	9.0	9.0	1.0	0.0	1	-29.999999999999996	29.999999999999996								
	5210	4495	0.005390325899703949	0.1362893596959543	-0.007508153883030987	7.000000000000001	7.000000000000001	7.000000000000001	1.0	0.0	1	-29.999999999999996	29.999999999999996								
	8179	7279	0.0007725180946877943	0.0429856029819926	-0.003975436976582804	723.0	723.0	723.0	0.934986	0.0	1	-29.999999999999996	29.999999999999996								
	1445	7279	0.00539033286741127	0.13628935914393644	-0.14718553461064784	14.000000000000002	14.000000000000002	14.000000000000002	1.0	0.0	1	-29.999999999999996	29.999999999999996								
	5509	8335	0.0005261020892489921	0.04260516555134281	-0.003974613986907552	692.0	692.0	692.0	0.955958	0.0	1	-29.999999999999996	29.999999999999996								
	5509	1531	0.0013539594456829184	0.06834570105460641	-0.003974605521226353	620.0	620.0	620.0	0.968125	0.0	1	-29.999999999999996	29.999999999999996								
	1445	8335	0.005390331387010792	0.1362893592612215	-0.003974677082074069	56.99999999999999	56.99999999999999	56.99999999999999	1.0	0.0	1	-29.999999999999996	29.999999999999996								
	7762	5155	0.0008752856008217755	0.050597942192295235	-0.0039760357383673926	700.0	700.0	700.0	0.918868	0.0	1	-29.999999999999996	29.999999999999996								
	7762	271	0.0007660571876412236	0.05141190452938224	-0.003975730341521471	662.0	662.0	662.0	0.948976	0.0	1	-29.999999999999996	29.999999999999996								
	7829	5776	0.014541552863079624	0.11923260190992428	-0.003974471925095282	117.0	117.0	117.0	1.0	0.0	1	-29.999999999999996	29.999999999999996								
	8329	1445	0.0011126319070944965	0.061958062263041215	-0.003981583826391225	552.0	552.0	552.0	0.967021	0.0	1	-29.999999999999996	29.999999999999996								
	8329	1445	0.0008750308059205346	0.05479771990175302	-0.003988818843485014	564.0	564.0	564.0	0.967021	0.0	1	-29.999999999999996	29.999999999999996								
	1445	2449	0.0053903278261937144	0.13628935954332788	-0.35178911476216046	25.0	25.0	25.0	1.0	0.0	1	-29.999999999999996	29.999999999999996								
	1445	4665	0.005390327282688607	0.13628935958638713	-0.025773253894764248	5.0	5.0	5.0	1.0	0.0	1	-29.999999999999996	29.999999999999996								
	2268	2908	0.0007525841451223208	0.05095925354910128	-0.003975685570250504	628.0	628.0	628.0	0.934622	0.0	1	-29.999999999999996	29.999999999999996								
	8847	5776	0.0013295648692307775	0.05135654100328486	-0.7655658791204957	637.0	637.0	637.0	0.913034	0.0	1	-29.999999999999996	29.999999999999996								
	8847	8103	0.0009667502658370713	0.0461835627371791	-0.003975403233025909	667.0	667.0	667.0	1.012146	0.0	1	-29.999999999999996	29.999999999999996								
	317	2449	0.0027232116832134243	0.06159317085605337	-0.8774252878614596	648.0	648.0	648.0	0.933053	0.0	1	-29.999999999999996	29.999999999999996								
	7637	8581	0.0001308657941677671	0.015945847704614644	-0.003979817202875665	1698.0	2038.0	2038.0	1.0	-0.428189	1	-29.999999999999996	29.999999999999996								
	5848	7526	9.149688563627851e-5	0.009789083201570528	-0.003974742805674217	1698.0	3279.9999999999995	3279.9999999999995	1.0	0.178581	1	-29.999999999999996	29.999999999999996								
	89	4495	0.0008409852523007387	0.04556990411562025	-0.0039748835238613755	693.0	693.0	693.0	0.924009	0.0	1	-29.999999999999996	29.999999999999996								
	2520	4665	0.0007916468131305536	0.044057590232454084	-0.00397527780328556	705.0	705.0	705.0	0.933053	0.0	1	-29.999999999999996	29.999999999999996								
	5996	8420	0.0007481501846722269	0.04212795497640512	-0.003978114592672716	731.0	731.0	731.0	0.923407	0.0	1	-29.999999999999996	29.999999999999996								
	2154	5996	9.102364230875263e-5	0.01000804848450179	-0.003976102054365283	1698.0	3191.0	3191.0	1.0	-0.153178	1	-29.999999999999996	29.999999999999996								
];

%%-----  OPF Data  -----%%
%% cost data
%    1    startup    shutdown    n    x1    y1    ...    xn    yn
%    2    startup    shutdown    n    c(n-1)    ...    c0
mpc.gencost = [
	2	0.0	0.0	2	6.586541000000001	0.0
	2	0.0	0.0	2	34.794851	0.0
	2	0.0	0.0	2	42.293854	0.0
	2	0.0	0.0	2	32.583236	0.0
	2	0.0	0.0	2	16.762466	0.0
	2	0.0	0.0	2	27.707032000000005	0.0
	2	0.0	0.0	2	8.398333	0.0
	2	0.0	0.0	2	37.992337	0.0
	2	0.0	0.0	2	20.760837	0.0
	2	0.0	0.0	2	22.51779	0.0
	2	0.0	0.0	2	31.271293	0.0
	2	0.0	0.0	2	17.655344	0.0
];

